LAMMPS (2 Aug 2019)
# four cnt with 10% -OH functionalization
# slightly high volume fraction
# lammps code to simulate tension test on RVE of nanocomposite with crack
# crack needs to be initiated first
# system is already equilibrated
# delete some atoms from a region to intiate a crack
# no cnt fix in MS equilibration
# load equilibrated structure

read_restart    restart.npt_equi
  restoring atom style charge from restart
  orthogonal box = (-1.84417 -0.289544 2.49092) to (68.0465 69.6011 142.272)
  pair style reax/c stores no restart info
  72897 atoms
  read_restart CPU = 0.26298 secs

# ReaxFF potential to define interatomic interactions

pair_style	reax/c control_file lgvdw yes
pair_coeff	* * ffield.reax.lg C C H O H C C C O O C C
Reading potential file ffield.reax.lg with DATE: 2012-01-06

neighbor	4 bin
neigh_modify	every 10 delay 0 check no

thermo 100
thermo_style custom step atoms temp press pe ke etotal vol density lx ly lz      #output variables

compute pnc_temp all temp
compute pnc_pe all pe/atom
compute pnc_stress all stress/atom pnc_temp pair bond
compute pnc_str all reduce sum c_pnc_stress[3]

variable tmpz equal "lz"
variable L0z equal 139.781382701698
variable tmpx equal "lx"
variable L0x equal 69.8906913508489
variable tmpy equal "ly"
variable L0y equal 69.8906913508489

# define groups of atoms to delete

fix std all qeq/reax 1 0.0 10.0 1e-6 reax/c

region atoms_for_deletion block EDGE 20.0 EDGE EDGE 69.88596 72.38596            # NOTE: box size will change after equilibration
delete_atoms region atoms_for_deletion
Deleted 394 atoms, new total = 72503
reset_ids
Unused restart file global fix info:
  fix style: npt, fix ID: npt_equi
  update every 10 steps, delay 0 steps, check no

reset_timestep 0
timestep 0.25
thermo_style custom step atoms temp press pe ke etotal vol density lx ly lz
fix 1 all npt temp 300.0 300.0 25.0 x 0.0 0.0 250.0 y 0.0 0.0 250.0 couple xy
fix 2 all deform 1 z erate 0.00001 units box
fix bd all reax/c/bonds 1000 bonds.reaxc
dump deform1 all custom 1000 dump.deform id type x y z

variable strainz equal "(lz-v_L0z)/v_L0z"
variable strainx equal "(lx-v_L0x)/v_L0x"
variable strainy equal "(ly-v_L0y)/v_L0y"
variable stressz equal "-pzz/10000"
variable p1 equal "v_stressz"
variable p2 equal "v_strainz"
variable p3 equal "v_strainx"
variable p4 equal "v_strainy"

run 400000
Step Atoms Temp Press PotEng KinEng TotEng Volume Density Lx Ly Lz
0    72503     299.1657   -688.47364   -8038110.5    64654.103   -7973456.4    682791.34    1.2035592    69.890691    69.890691    139.78138
Averages over the last 2001 of 4001 rows, steps 200000 to 400000:
Atoms Temp Press PotEng KinEng TotEng Volume Density Lx Ly Lz
72503 300.03 -0.434379 -8.04671e+06 64840.9 -7.98187e+06 1.10245e+06 0.750435 67.1357 67.1357 244.617
Loop time of 211312 on 56 procs for 400000 steps with 72503 atoms

write_restart restart.after_deform
unfix 1
unfix 2
unfix 3
unfix std
unfix bd

Please see the log.cite file for references relevant to this simulation
