LAMMPS (2 Aug 2019)
#lammps code to run fracture simulations on PNC with four cnt
# note that volume fraction for four cnt is slightly higher
#functionalized 10 % with -OH group
#cnt not fixed during nvt equilibration in materials studio

units		real
atom_style 	charge
boundary 	p p p
read_data       four_cnt_funct.data
  orthogonal box = (-1.89883 -0.344199 2.38161) to (68.1012 69.6558 142.382)
  reading atoms ...
  72897 atoms

pair_style	reax/c control_file lgvdw yes
pair_coeff	* * ffield.reax.lg C C H O H C C C O O C C
Reading potential file ffield.reax.lg with DATE: 2012-01-06

neighbor	4 bin
neigh_modify	every 10 delay 0 check no

thermo 100
thermo_style custom step atoms temp press pe ke etotal vol density lx ly lz      #output variables

fix std all qeq/reax 1 0.0 10.0 1e-6 reax/c
min_style	 cg							#conjugate gradient minimization
minimize	 1.0e-6 1.0e-8 10000 100000
  update every 1 steps, delay 0 steps, check yes
Step Atoms Temp Press PotEng KinEng TotEng Volume Density Lx Ly Lz
0    72897            0    305077.84   -7735023.3            0   -7735023.3       686000     1.204659           70           70          140
Loop time of 30.0532 on 56 procs for 20 steps with 72897 atoms

Minimization stats:
  Stopping criterion = energy tolerance
  Energy initial, next-to-last, final =
  Force two-norm initial, final = 64480.7 10191.8
  Force max component initial, final = 861.777 238.892
  Final line search alpha, max atom move = 0.00014228 0.0339896
  Iterations, force evaluations = 20 36

#set of equilibrations to reduce the energy of the system

reset_timestep 0
timestep 0.25
#fix nvt_equi all nvt temp 300.0 300.0 25.0
fix npt_equi all npt temp 300.0 300.0 25.0 iso 1.0 1.0 250.0
dump npt_dump all custom 500 dump.npt id type x y z
run 200000
Step Atoms Temp Press PotEng KinEng TotEng Volume Density Lx Ly Lz
0    72897            0    12419.998   -8097531.4            0   -8097531.4       686000     1.204659           70           70          140
Averages over the last 1001 of 2001 rows, steps 100000 to 200000:
Atoms Temp Press PotEng KinEng TotEng Volume Density Lx Ly Lz
72897 300.015 46.3206 -8.09303e+06 65190 -8.02784e+06 683917 1.20833 69.9291 69.9291 139.858
Loop time of 95185.6 on 56 procs for 200000 steps with 72897 atoms

write_restart	restart.npt_equi
unfix npt_equi
undump npt_dump

Please see the log.cite file for references relevant to this simulation
