LAMMPS (2 Aug 2019)
# two cnt vertical with 10% -OH functionalization
# lammps code to simulate tension test on RVE of nanocomposite with crack
# crack needs to be initiated first
# system is already equilibrated
# delete some atoms from a region to intiate a crack
# no cnt fix in MS equilibration
# load equilibrated structure

read_restart    restart.npt_equi
  restoring atom style charge from restart
  orthogonal box = (0.732057 -1.45172 0.323083) to (70.6046 68.4208 140.068)
  pair style reax/c stores no restart info
  72085 atoms
  read_restart CPU = 0.213847 secs

# ReaxFF potential to define interatomic interactions

pair_style	reax/c control_file lgvdw yes
pair_coeff	* * ffield.reax.lg C C H O C C C O O C C
Reading potential file ffield.reax.lg with DATE: 2012-01-06

neighbor	4 bin
neigh_modify	every 10 delay 0 check no

thermo 100
thermo_style custom step atoms temp press pe ke etotal vol density lx ly lz      #output variables

compute pnc_temp all temp
compute pnc_pe all pe/atom
compute pnc_stress all stress/atom pnc_temp pair bond
compute pnc_str all reduce sum c_pnc_stress[3]

variable tmpz equal "lz"
variable L0z equal 139.745068197426
variable tmpx equal "lx"
variable L0x equal 69.8725340987131
variable tmpy equal "ly"
variable L0y equal 69.872534098713

# define groups of atoms to delete

fix std all qeq/reax 1 0.0 10.0 1e-6 reax/c

region atoms_for_deletion block EDGE 20.0 EDGE EDGE 68.7840415 71.2840415             # NOTE: box size will change after equilibration
delete_atoms region atoms_for_deletion
Deleted 354 atoms, new total = 71731
reset_ids
Unused restart file global fix info:
  fix style: npt, fix ID: npt_equi
  update every 10 steps, delay 0 steps, check no

reset_timestep 0
timestep 0.25
thermo_style custom step atoms temp press pe ke etotal vol density lx ly lz
fix 1 all npt temp 300.0 300.0 25.0 x 0.0 0.0 250.0 y 0.0 0.0 250.0 couple xy
fix 2 all deform 1 z erate 0.00001 units box
fix bd all reax/c/bonds 1000 bonds.reaxc
dump deform1 all custom 1000 dump.deform id type x y z

variable strainz equal "(lz-v_L0z)/v_L0z"
variable strainx equal "(lx-v_L0x)/v_L0x"
variable strainy equal "(ly-v_L0y)/v_L0y"
variable stressz equal "-pzz/10000"
variable p1 equal "v_stressz"
variable p2 equal "v_strainz"
variable p3 equal "v_strainx"
variable p4 equal "v_strainy"

run 400000
Step Atoms Temp Press PotEng KinEng TotEng Volume Density Lx Ly Lz
0    71731    297.44525   -267.52356   -7950531.4    63597.812   -7886933.6    682259.32    1.1935048    69.872534    69.872534    139.74507
Averages over the last 2001 of 4001 rows, steps 200000 to 400000:
Atoms Temp Press PotEng KinEng TotEng Volume Density Lx Ly Lz
71731 300.017 -1.60408 -7.95912e+06 64147.8 -7.89497e+06 1.00632e+06 0.815165 64.1403 64.1403 244.554
Loop time of 200886 on 56 procs for 400000 steps with 71731 atoms

write_restart restart.after_deform
unfix 1
unfix 2
unfix 3
unfix std
unfix bd

Please see the log.cite file for references relevant to this simulation
