LAMMPS (2 Aug 2019)
#lammps code to run fracture simulations on PNC with three cnt
#functionalized 10 % with -OH group
#cnt not fixed during nvt equilibration in materials studio

units		real
atom_style 	charge
boundary 	p p p
read_data       three_cnt_funct.data
  orthogonal box = (0.699351 2.58638 -5.19311) to (70.6994 72.5864 134.807)
  reading atoms ...
  73155 atoms

pair_style	reax/c control_file lgvdw yes
pair_coeff	* * ffield.reax.lg C C H O H C C C O O C C
Reading potential file ffield.reax.lg with DATE: 2012-01-06

neighbor	4 bin
neigh_modify	every 10 delay 0 check no

thermo 100
thermo_style custom step atoms temp press pe ke etotal vol density lx ly lz      #output variables

fix std all qeq/reax 1 0.0 10.0 1e-6 reax/c
min_style	 cg							#conjugate gradient minimization
minimize	 1.0e-6 1.0e-8 10000 100000
  update every 1 steps, delay 0 steps, check yes
Step Atoms Temp Press PotEng KinEng TotEng Volume Density Lx Ly Lz
0    73155            0    309048.16   -7729670.4            0   -7729670.4       686000    1.2065849           70           70          140
Loop time of 152.173 on 56 procs for 69 steps with 73155 atoms

Minimization stats:
  Stopping criterion = energy tolerance
  Energy initial, next-to-last, final =
  Force two-norm initial, final = 64240.1 4391.42
  Force max component initial, final = 4063.18 325.577
  Final line search alpha, max atom move = 0.000126857 0.0413016
  Iterations, force evaluations = 69 199

#set of equilibrations to reduce the energy of the system

reset_timestep 0
timestep 0.25
#fix nvt_equi all nvt temp 300.0 300.0 25.0
fix npt_equi all npt temp 300.0 300.0 25.0 iso 1.0 1.0 250.0
dump npt_dump all custom 500 dump.npt id type x y z
run 200000
Step Atoms Temp Press PotEng KinEng TotEng Volume Density Lx Ly Lz
0    73155            0    7212.4117   -8131276.7            0   -8131276.7       686000    1.2065849           70           70          140
Averages over the last 1001 of 2001 rows, steps 100000 to 200000:
Atoms Temp Press PotEng KinEng TotEng Volume Density Lx Ly Lz
73155 299.989 2.19612 -8.11074e+06 65415.1 -8.04533e+06 692472 1.19532 70.2194 70.2194 140.439
Loop time of 94714.9 on 56 procs for 200000 steps with 73155 atoms

write_restart	restart.npt_equi
unfix npt_equi
undump npt_dump

Please see the log.cite file for references relevant to this simulation
