LAMMPS (2 Aug 2019)
#lammps code to run fracture simulations on PNC with single cnt
#functionalized 10 % with -OH group
#cnt not fixed during nvt equilibration in materials studio

units		real
atom_style 	charge
boundary 	p p p
read_data       single_cnt_f.data
  orthogonal box = (0.590896 0.795523 -0.725637) to (70.5909 70.7955 139.274)
  reading atoms ...
  73382 atoms

pair_style	reax/c control_file lgvdw yes
pair_coeff	* * ffield.reax.lg C C H O H C C C O O C C
Reading potential file ffield.reax.lg with DATE: 2012-01-06

neighbor	4 bin
neigh_modify	every 10 delay 0 check no

thermo 100
thermo_style custom step atoms temp press pe ke etotal vol density lx ly lz      #output variables

fix std all qeq/reax 1 0.0 10.0 1e-6 reax/c
min_style	 cg							#conjugate gradient minimization
minimize	 1.0e-6 1.0e-8 10000 100000
  update every 1 steps, delay 0 steps, check yes
Step Atoms Temp Press PotEng KinEng TotEng Volume Density Lx Ly Lz
0    73382            0    313689.58   -7758704.3            0   -7758704.3       686000     1.210225           70           70          140
Loop time of 106.163 on 56 procs for 48 steps with 73382 atoms

Minimization stats:
  Stopping criterion = energy tolerance
  Energy initial, next-to-last, final =
  Force two-norm initial, final = 64582 4638.74
  Force max component initial, final = 965.143 341.769
  Final line search alpha, max atom move = 0.000586496 0.200446
  Iterations, force evaluations = 48 130

#set of equilibrations to reduce the energy of the system

reset_timestep 0
timestep 0.25
#fix nvt_equi all nvt temp 300.0 300.0 25.0
fix npt_equi all npt temp 300.0 300.0 25.0 iso 1.0 1.0 250.0
dump npt_dump all custom 500 dump.npt id type x y z
run 200000
Step Atoms Temp Press PotEng KinEng TotEng Volume Density Lx Ly Lz
0    73382            0    24847.434   -8151505.4            0   -8151505.4       686000     1.210225           70           70          140
Averages over the last 1001 of 2001 rows, steps 100000 to 200000:
Atoms Temp Press PotEng KinEng TotEng Volume Density Lx Ly Lz
73382 300.013 20.29 -8.14089e+06 65623.2 -8.07526e+06 709695 1.16982 70.7968 70.7968 141.594
Loop time of 94369.8 on 56 procs for 200000 steps with 73382 atoms

write_restart	restart.npt_equi
unfix npt_equi
undump npt_dump

Please see the log.cite file for references relevant to this simulation
