LAMMPS (2 Aug 2019)
#lammps code to run fracture simulations on PNC with two cnt horizontal arrangement
#functionalized 10 % with -OH group
#cnt not fixed during nvt equilibration in materials studio

units		real
atom_style 	charge
boundary 	p p p
read_data       two_cnt_v_f.data
  orthogonal box = (0.668324 -1.51545 0.195617) to (70.6683 68.4846 140.196)
  reading atoms ...
  72085 atoms

pair_style	reax/c control_file lgvdw yes
pair_coeff	* * ffield.reax.lg C C H O C C C O O C C
Reading potential file ffield.reax.lg with DATE: 2012-01-06

neighbor	4 bin
neigh_modify	every 10 delay 0 check no

thermo 100
thermo_style custom step atoms temp press pe ke etotal vol density lx ly lz      #output variables

fix std all qeq/reax 1 0.0 10.0 1e-6 reax/c
min_style	 cg							#conjugate gradient minimization
minimize	 1.0e-6 1.0e-8 10000 100000
  update every 1 steps, delay 0 steps, check yes
Step Atoms Temp Press PotEng KinEng TotEng Volume Density Lx Ly Lz
0    72085            0    290914.73   -7621268.2            0   -7621268.2       686000    1.1927332           70           70          140
Loop time of 89.1546 on 56 procs for 40 steps with 72085 atoms

Minimization stats:
  Stopping criterion = energy tolerance
  Energy initial, next-to-last, final =
  Force two-norm initial, final = 64741.4 5316.31
  Force max component initial, final = 826.395 273.938
  Final line search alpha, max atom move = 9.42042e-05 0.0258061
  Iterations, force evaluations = 40 112

#set of equilibrations to reduce the energy of the system

reset_timestep 0
timestep 0.25
#fix nvt_equi all nvt temp 300.0 300.0 25.0
fix npt_equi all npt temp 300.0 300.0 25.0 iso 1.0 1.0 250.0
dump npt_dump all custom 500 dump.npt id type x y z
run 200000
Step Atoms Temp Press PotEng KinEng TotEng Volume Density Lx Ly Lz
0    72085            0    8792.9077     -8010329            0     -8010329       686000    1.1927332           70           70          140
Averages over the last 1001 of 2001 rows, steps 100000 to 200000:
Atoms Temp Press PotEng KinEng TotEng Volume Density Lx Ly Lz
72085 300.013 -4.92631 -7.9998e+06 64463.4 -7.93534e+06 682849 1.19824 69.8926 69.8926 139.785
Loop time of 93923.5 on 56 procs for 200000 steps with 72085 atoms

write_restart	restart.npt_equi
unfix npt_equi
undump npt_dump

Please see the log.cite file for references relevant to this simulation
