LAMMPS (2 Aug 2019)
#lammps code to run fracture simulations on PNC with two cnt vertical arrangement
#functionalized 10 % with -OH group
#cnt not fixed during nvt equilibration in materials studio

units		real
atom_style 	charge
boundary 	p p p
read_data       two_cnt_v_f.data
  orthogonal box = (-0.181716 1.74786 2.01154) to (69.8183 71.7479 142.012)
  reading atoms ...
  72085 atoms

pair_style	reax/c control_file lgvdw yes
pair_coeff	* * ffield.reax.lg C C H O C C C O O C C
Reading potential file ffield.reax.lg with DATE: 2012-01-06

neighbor	4 bin
neigh_modify	every 10 delay 0 check no

thermo 100
thermo_style custom step atoms temp press pe ke etotal vol density lx ly lz      #output variables

fix std all qeq/reax 1 0.0 10.0 1e-6 reax/c
min_style	 cg							#conjugate gradient minimization
minimize	 1.0e-6 1.0e-8 10000 100000
  update every 1 steps, delay 0 steps, check yes
Step Atoms Temp Press PotEng KinEng TotEng Volume Density Lx Ly Lz
0    72085            0    293119.37   -7619153.1            0   -7619153.1       686000    1.1927332           70           70          140
Loop time of 55.2759 on 56 procs for 39 steps with 72085 atoms

Minimization stats:
  Stopping criterion = energy tolerance
  Energy initial, next-to-last, final =
  Force two-norm initial, final = 66760 9564.78
  Force max component initial, final = 8665.85 206.894
  Final line search alpha, max atom move = 0.00015188 0.0314231
  Iterations, force evaluations = 39 68

#set of equilibrations to reduce the energy of the system

reset_timestep 0
timestep 0.25
#fix nvt_equi all nvt temp 300.0 300.0 25.0
fix npt_equi all npt temp 300.0 300.0 25.0 iso 1.0 1.0 250.0
dump npt_dump all custom 500 dump.npt id type x y z
run 200000
Step Atoms Temp Press PotEng KinEng TotEng Volume Density Lx Ly Lz
0    72085            0    13747.159   -8005550.7            0   -8005550.7       686000    1.1927332           70           70          140
Averages over the last 1001 of 2001 rows, steps 100000 to 200000:
Atoms Temp Press PotEng KinEng TotEng Volume Density Lx Ly Lz
72085 299.984 -26.0868 -7.99938e+06 64457.2 -7.93492e+06 688168 1.18898 70.0736 70.0736 140.147
Loop time of 94913.5 on 56 procs for 200000 steps with 72085 atoms

write_restart	restart.npt_equi
unfix npt_equi
undump npt_dump

Please see the log.cite file for references relevant to this simulation
