LAMMPS (2 Aug 2019)
# two cnt horizontal with 10% -OH functionalization
# lammps code to simulate tension test on RVE of nanocomposite with crack
# crack needs to be initiated first
# system is already equilibrated
# delete some atoms from a region to intiate a crack
# no cnt fix in MS equilibration
# load equilibrated structure

read_restart    restart.npt_equi
  restoring atom style charge from restart
  orthogonal box = (-0.183061 1.74652 2.00886) to (69.8196 71.7492 142.014)
  pair style reax/c stores no restart info
  72085 atoms
  read_restart CPU = 0.364217 secs

# ReaxFF potential to define interatomic interactions

pair_style	reax/c control_file lgvdw yes
pair_coeff	* * ffield.reax.lg C C H O C C C O O C C
Reading potential file ffield.reax.lg with DATE: 2012-01-06

neighbor	4 bin
neigh_modify	every 10 delay 0 check no

thermo 100
thermo_style custom step atoms temp press pe ke etotal vol density lx ly lz      #output variables

compute pnc_temp all temp
compute pnc_pe all pe/atom
compute pnc_stress all stress/atom pnc_temp pair bond
compute pnc_str all reduce sum c_pnc_stress[3]

variable tmpz equal "lz"
variable L0z equal 140.005378658068
variable tmpx equal "lx"
variable L0x equal 70.0026893290342
variable tmpy equal "ly"
variable L0y equal 70.0026893290342

# define groups of atoms to delete

fix std all qeq/reax 1 0.0 10.0 1e-6 reax/c

region atoms_for_deletion block EDGE 20.0 EDGE EDGE 69.75693 72.25693              # NOTE: box size will change after equilibration
delete_atoms region atoms_for_deletion
Deleted 357 atoms, new total = 71728
reset_ids
Unused restart file global fix info:
  fix style: npt, fix ID: npt_equi
  update every 10 steps, delay 0 steps, check no

reset_timestep 0
timestep 0.25
thermo_style custom step atoms temp press pe ke etotal vol density lx ly lz
fix 1 all npt temp 300.0 300.0 25.0 x 0.0 0.0 250.0 y 0.0 0.0 250.0 couple xy
fix 2 all deform 1 z erate 0.00001 units box
fix bd all reax/c/bonds 1000 bonds.reaxc
dump deform1 all custom 1000 dump.deform id type x y z

variable strainz equal "(lz-v_L0z)/v_L0z"
variable strainx equal "(lx-v_L0x)/v_L0x"
variable strainy equal "(ly-v_L0y)/v_L0y"
variable stressz equal "-pzz/10000"
variable p1 equal "v_stressz"
variable p2 equal "v_strainz"
variable p3 equal "v_strainx"
variable p4 equal "v_strainy"

run 300000
Step Atoms Temp Press PotEng KinEng TotEng Volume Density Lx Ly Lz
0    71728    299.84213    886.06414   -7951406.1    64107.615   -7887298.5    686079.07    1.1870101    70.002689    70.002689    140.00538
Averages over the last 1501 of 3001 rows, steps 150000 to 300000:
Atoms Temp Press PotEng KinEng TotEng Volume Density Lx Ly Lz
71728 299.974 -321.402 -7.95687e+06 64135.8 -7.89273e+06 874253 0.936212 63.2143 63.2143 218.758
Loop time of 144096 on 56 procs for 300000 steps with 71728 atoms

write_restart restart.after_deform
unfix 1
unfix 2
unfix 3
unfix std
unfix bd

Please see the log.cite file for references relevant to this simulation
