LAMMPS (2 Aug 2019)
#lammps code to run fracture simulations on PNC with six cnt
#functionalized 10 % with -OH group
#cnt not fixed during nvt equilibration in materials studio

units		real
atom_style 	charge
boundary 	p p p
read_data       six_cnt_f.data
  orthogonal box = (-0.162694 -0.0433282 -1.42564) to (69.8373 69.9567 138.574)
  reading atoms ...
  72620 atoms

pair_style	reax/c control_file lgvdw yes
pair_coeff	* * ffield.reax.lg C C H O H C C C O O C C
Reading potential file ffield.reax.lg with DATE: 2012-01-06

neighbor	4 bin
neigh_modify	every 10 delay 0 check no

thermo 100
thermo_style custom step atoms temp press pe ke etotal vol density lx ly lz      #output variables

fix std all qeq/reax 1 0.0 10.0 1e-6 reax/c
min_style	 cg							#conjugate gradient minimization
minimize	 1.0e-6 1.0e-8 10000 100000
  update every 1 steps, delay 0 steps, check yes
Step Atoms Temp Press PotEng KinEng TotEng Volume Density Lx Ly Lz
0    72620            0    338209.58   -7741466.2            0   -7741466.2       686000    1.2046943           70           70          140
Loop time of 34.5953 on 28 procs for 24 steps with 72620 atoms

Minimization stats:
  Stopping criterion = energy tolerance
  Energy initial, next-to-last, final =
  Force two-norm initial, final = 64751.8 10520.7
  Force max component initial, final = 8433.83 470.781
  Final line search alpha, max atom move = 0.000117644 0.0553848
  Iterations, force evaluations = 24 42

#set of equilibrations to reduce the energy of the system

reset_timestep 0
timestep 0.5
#fix nvt_equi all nvt temp 300.0 300.0 25.0
fix npt_equi all npt temp 300.0 300.0 25.0 iso 1.0 1.0 250.0
dump npt_dump all custom 500 dump.npt id type x y z
run 100000
Step Atoms Temp Press PotEng KinEng TotEng Volume Density Lx Ly Lz
0    72620            0     19018.61     -8069993            0     -8069993       686000    1.2046943           70           70          140
Averages over the last 501 of 1001 rows, steps 50000 to 100000:
Atoms Temp Press PotEng KinEng TotEng Volume Density Lx Ly Lz
72620 299.933 22.4823 -8.07968e+06 64924.5 -8.01476e+06 714227 1.1571 70.9471 70.9471 141.894
Loop time of 60645 on 28 procs for 100000 steps with 72620 atoms

write_restart	restart.npt_equi
unfix npt_equi
undump npt_dump

Please see the log.cite file for references relevant to this simulation
